Circuit: * C:\Users\Marcelo\Documents\GitHub\DisenioBJAM\Hito 4\EA-Nuevo\Buffer.asc

Direct Newton iteration failed to find .op point.  (Use ".option noopiter" to skip.)
Starting Gmin stepping
Gmin = 10
Gmin = 1.07374
Gmin = 0.115292
Gmin = 0.0123794
Gmin = 0.00132923
Gmin = 0.000142725
vernier = 0.5
Gmin = 2.66058e-005
vernier = 0.25
vernier = 0.125
vernier = 0.0625
vernier = 0.03125
Gmin = 2.4282e-005
vernier = 0.015625
vernier = 0.0078125
Gmin = 2.38598e-005
vernier = 0.0104167
vernier = 0.0138889
Gmin = 2.31669e-005
vernier = 0.0185185
vernier = 0.0246913
Gmin = 2.21043e-005
vernier = 0.0329218
Gmin = 2.05318e-005
vernier = 0.0438957
vernier = 0.0585276
Gmin = 1.81449e-005
vernier = 0.0780367
vernier = 0.104049
Gmin = 1.49103e-005
vernier = 0.138732
Gmin = 1.09656e-005
vernier = 0.184976
vernier = 0.246634
Gmin = 6.58103e-006
vernier = 0.328846
vernier = 0.438461
Gmin = 2.95193e-006
vernier = 0.584614
Gmin = 8.58934e-007
vernier = 0.779486
vernier = 1
Gmin = 1.20891e-007
Gmin = 1.29805e-008
Gmin = 1.39378e-009
Gmin = 1.49655e-010
Gmin = 1.60691e-011
Gmin = 1.72541e-012
Gmin = 1.85264e-013
Gmin = 0
Gmin stepping succeeded in finding the operating point.


Date: Sat Jun 26 15:15:30 2021
Total elapsed time: 0.156 seconds.

tnom = 27
temp = 27
method = trap
totiter = 1690
traniter = 0
tranpoints = 0
accept = 0
rejected = 0
matrix size = 138
fillins = 159
solver = Normal
Thread vector: 7.2/4.8[3] 0.0/0.0[0] 3.2/2.6[3] 0.5/1.6[1]  2592/500
Matrix Compiler1:     913 opcodes  2.9/1.8/[0.6]
Matrix Compiler2: 13.96 KB object code size  1.5/1.8/[0.5]

