Circuit: * C:\Users\Marcelo\Documents\GitHub\DisenioBJAM\Hito 4\EA-Nuevo\Draft1.asc

Direct Newton iteration for .op point succeeded.

Date: Mon Jun 28 14:12:19 2021
Total elapsed time: 0.051 seconds.

tnom = 27
temp = 27
method = modified trap
totiter = 251
traniter = 248
tranpoints = 125
accept = 125
rejected = 0
matrix size = 2
fillins = 0
solver = Normal
Matrix Compiler1: off  [0.0]/0.0/0.0
Matrix Compiler2:      10 opcodes  0.0/[0.0]/0.0

