Circuit: * C:\Users\Marcelo\Documents\GitHub\DisenioBJAM\Hito 4\EA-Nuevo\RC.asc

Direct Newton iteration for .op point succeeded.

Date: Mon Jun 28 14:45:41 2021
Total elapsed time: 0.126 seconds.

tnom = 27
temp = 27
method = modified trap
totiter = 254
traniter = 248
tranpoints = 125
accept = 125
rejected = 0
matrix size = 8
fillins = 0
solver = Normal
Matrix Compiler1: 318 bytes object code size  0.1/0.1/[0.0]
Matrix Compiler2: 520 bytes object code size  0.1/0.1/[0.1]

